%chk=check.chk
%mem=14000mb
%NProcShared=16

#P opt=(modredundant) integral=(grid=ultrafine, Acc2E=12) guess=read ub3lyp/cbsb7   scf=xqc iop(2/9=2000)

name

0 2
C      -1.42838000    0.08160900    0.28437500
O      -0.36218600    0.05507800   -0.65272800
O       0.16283400    1.42369700   -0.72422400
C      -0.23794000    1.98646000   -1.88980400
H       0.01549300    3.03826400   -1.92664900
H      -0.26878400    1.35550500   -2.77054000
H      -2.24082000    0.73184200   -0.05598500
H      -1.07969300    0.39256100    1.27355400
H      -1.77630600   -0.95336300    0.32494100

D 2 3 4 5 S 45 8.0


