%chk=check.chk
%mem=7168mb
%NProcShared=10

#P opt=(ts, calcfc, noeigentest, maxcycles=100) guess=mix uwb97xd/def2svp   IOp(2/9=2000) scf=xqc  

TS0

0 2
C      -0.86999074   -0.64833680    1.73562713
C      -0.18428547    0.70246036    1.88049431
O       0.79539527    0.95495308    0.87531047
O       0.07822588    1.16695023   -0.37560328
H      -0.13505117   -1.45757783    1.74542285
H      -1.43097648   -0.69336569    0.80044505
H      -1.57098002   -0.81005973    2.55944707
H       0.40370863    0.75575134    2.80205012
H      -0.91081596    1.52232356    1.88799630
C       0.07822588   -1.13509513   -2.80662626
C       0.07822588   -1.13509513   -1.27622071
H       0.07822590   -2.15349707   -3.20505045
H      -0.80373437   -0.62589407   -3.20505095
H       0.96018796   -0.62589549   -3.20504977
H       0.07822588    0.08698720   -0.79811169
H       0.96018614   -1.64429618   -0.87779602
H      -0.80373619   -1.64429478   -0.87779721


