%chk=check.chk
%mem=7168mb
%NProcShared=10

#P opt=(ts, calcfc, noeigentest, maxcycles=100) guess=mix uwb97xd/def2svp   IOp(2/9=2000) scf=xqc  

TS0

0 2
C      -1.30927255    2.20544878   -0.02551297
C      -0.82154786    1.55154723    1.25915375
O      -0.41350299    0.19563007    1.08912573
O       0.82867083    0.21634964    0.32713175
H      -2.13727079    1.63742613   -0.45780032
H      -0.50066164    2.26088574   -0.75652135
H      -1.65685127    3.22325079    0.17320207
H      -1.62719953    1.46525259    1.99489878
H      -0.00142644    2.11939707    1.71195159
C       0.82867083   -2.08569572   -2.10389124
C       0.82867083   -2.08569572   -0.57348568
H       0.82867085   -3.10409766   -2.50231542
H      -0.05328942   -1.57649466   -2.50231592
H       1.71063292   -1.57649608   -2.50231474
H       0.82867083   -0.86361339   -0.09537666
H       1.71063110   -2.59489677   -0.17506100
H      -0.05329124   -2.59489537   -0.17506218


