%chk=check.chk
%mem=7168mb
%NProcShared=10

#P opt=(ts, calcfc, noeigentest, maxcycles=100) guess=mix uwb97xd/def2svp   IOp(2/9=2000) scf=xqc  

TS0

0 2
C       1.86065923    0.98878799   -0.24226017
C       0.59157177    1.80651718   -0.05103476
O      -0.59784148    1.01963859   -0.04473488
O      -0.59784148    0.25648805    1.19690161
H       1.81224097    0.41171768   -1.16948652
H       2.00130885    0.30113645    0.59359339
H       2.73358470    1.64593325   -0.29105357
H       0.42182888    2.48440942   -0.89334800
H       0.63293955    2.40239206    0.86727908
C      -0.59784148   -2.04555731   -1.23412138
C      -0.59784148   -2.04555731    0.29628417
H      -0.59784147   -3.06395925   -1.63254557
H      -1.47980174   -1.53635625   -1.63254607
H       0.28412060   -1.53635767   -1.63254489
H      -0.59784148   -0.82347498    0.77439319
H       0.28411878   -2.55475836    0.69470886
H      -1.47980356   -2.55475696    0.69470767


