%chk=check.chk
%mem=7168mb
%NProcShared=10

#P opt=(ts, calcfc, noeigentest, maxcycles=100) guess=mix uwb97xd/def2svp   IOp(2/9=2000) scf=xqc  

TS0

0 2
C       0.28264779    2.34084192   -0.69771285
C      -0.70379760    1.89005393    0.36978275
O      -0.83111182    0.47285848    0.46606167
O       0.41106200   -0.02900202    1.03982134
H       0.00148303    1.94269769   -1.67624784
H       1.29046288    1.99932050   -0.45487548
H       0.30120600    3.43246944   -0.76270909
H      -1.72451372    2.20306249    0.12893767
H      -0.44284561    2.29494143    1.35367739
C       0.41106200   -2.33104738   -1.39120165
C       0.41106200   -2.33104738    0.13920390
H       0.41106201   -3.34944933   -1.78962584
H      -0.47089826   -1.82184632   -1.78962634
H       1.29302408   -1.82184775   -1.78962516
H       0.41106200   -1.10896505    0.61731292
H       1.29302226   -2.84024843    0.53762859
H      -0.47090008   -2.84024704    0.53762740


