%chk=check.chk
%mem=7168mb
%NProcShared=10

#P opt=(ts, calcfc, noeigentest, maxcycles=100) guess=mix uwb97xd/def2svp   IOp(2/9=2000) scf=xqc  

TS0

0 2
C       1.22106971    1.86850480   -0.64097659
C      -0.15795899    1.97295956   -0.00599609
O      -0.79848375    0.71181834    0.17613665
O      -0.08131436    0.01868026    1.23881608
H       1.16444086    1.35689163   -1.60541856
H       1.90076114    1.31686551    0.01095268
H       1.64186445    2.86477420   -0.80406742
H      -0.85959454    2.50219953   -0.65826501
H      -0.11843626    2.49785283    0.95473462
C      -0.08131436   -2.28336510   -1.19220691
C      -0.08131436   -2.28336510    0.33819865
H      -0.08131434   -3.30176705   -1.59063109
H      -0.96327461   -1.77416404   -1.59063159
H       0.80064773   -1.77416547   -1.59063041
H      -0.08131436   -1.06128277    0.81630767
H       0.80064591   -2.79256615    0.73662333
H      -0.96327643   -2.79256476    0.73662215


