%chk=check.chk
%mem=7168mb
%NProcShared=10

#P opt=(ts, calcfc, noeigentest, maxcycles=100) guess=mix uwb97xd/def2svp   IOp(2/9=2000) scf=xqc  

TS0

0 2
C       1.56758097   -0.51363223    0.81120794
C       1.29205313    0.98251197    0.84952398
O       0.23662172    1.39001893   -0.01876405
O      -1.00555210    0.88815843    0.55499562
H       1.80059889   -0.83749705   -0.20659233
H       0.69962704   -1.07092702    1.16810658
H       2.41705478   -0.76117694    1.45411962
H       2.14397792    1.55592645    0.47102415
H       1.07223703    1.32393634    1.86696625
C      -1.00555210   -1.41388694   -1.87602737
C      -1.00555210   -1.41388694   -0.34562182
H      -1.00555209   -2.43228888   -2.27445155
H      -1.88751236   -0.90468587   -2.27445205
H      -0.12359002   -0.90468730   -2.27445087
H      -1.00555210   -0.19180461    0.13248721
H      -0.12359184   -1.92308798    0.05280287
H      -1.88751418   -1.92308659    0.05280169


