%chk=check.chk
%mem=7168mb
%NProcShared=10

#P opt=(ts, calcfc, noeigentest, maxcycles=100) guess=mix uwb97xd/def2svp   IOp(2/9=2000) scf=xqc  

TS0

0 2
C       1.90412458    0.08245327    0.30315887
C       1.15157280    1.40510832    0.29417918
O      -0.20566078    1.28568789   -0.12722000
O      -0.92283017    0.59254981    0.93545944
H       1.87942931   -0.38268308   -0.68585148
H       1.46067059   -0.60419594    1.02645656
H       2.94951000    0.24079931    0.58300777
H       1.56810537    2.09728491   -0.44422065
H       1.18153209    1.89029255    1.27590072
C      -0.92283017   -1.70949555   -1.49556355
C      -0.92283017   -1.70949555    0.03484200
H      -0.92283015   -2.72789749   -1.89398774
H      -1.80479042   -1.20029449   -1.89398824
H      -0.04086808   -1.20029591   -1.89398706
H      -0.92283017   -0.48741322    0.51295102
H      -0.04086990   -2.21869659    0.43326669
H      -1.80479224   -2.21869520    0.43326550


