%chk=check.chk
%mem=7168mb
%NProcShared=10

#P opt=(ts, calcfc, noeigentest, maxcycles=100) guess=mix uwb97xd/def2svp   IOp(2/9=2000) scf=xqc  

TS0

0 2
C       0.23529105   -0.94449936    1.63960012
C       0.48008978    0.55006326    1.78855423
O       0.75857998    1.20772817    0.55411445
O      -0.48359384    1.22844773   -0.20787952
H       1.09123654   -1.43055375    1.16398302
H      -0.65450350   -1.12717102    1.03445976
H       0.07901297   -1.40449076    2.61950044
H       1.38371786    0.75112983    2.37239552
H      -0.36390933    1.04788073    2.27837231
C      -0.48359384   -1.07359763   -2.63890251
C      -0.48359384   -1.07359763   -1.10849696
H      -0.48359383   -2.09199957   -3.03732670
H      -1.36555410   -0.56439656   -3.03732720
H       0.39836824   -0.56439799   -3.03732602
H      -0.48359384    0.14848470   -0.63038794
H       0.39836642   -1.58279867   -0.71007227
H      -1.36555592   -1.58279728   -0.71007346


