%chk=check.chk
%mem=7168mb
%NProcShared=10

#P opt=(ts, calcfc, noeigentest, maxcycles=100) guess=mix uwb97xd/def2svp   IOp(2/9=2000) scf=xqc  

TS0

0 2
C      -1.85645306    1.59079468    0.55198633
C      -0.68255094    1.41436233    1.50417151
O       0.08062822    0.23550609    1.25562168
O       0.79779761    0.44750324    0.00470794
H      -2.52044484    0.72328675    0.59258287
H      -1.50156271    1.71502462   -0.47266868
H      -2.43457076    2.47955691    0.82050298
H      -1.02181899    1.26338343    2.53370766
H      -0.01663711    2.28400783    1.48535778
C       0.79779761   -1.85454212   -2.42631505
C       0.79779761   -1.85454212   -0.89590950
H       0.79779763   -2.87294406   -2.82473924
H      -0.08416264   -1.34534106   -2.82473974
H       1.67975969   -1.34534248   -2.82473856
H       0.79779761   -0.63245979   -0.41780048
H       1.67975787   -2.36374317   -0.49748481
H      -0.08416446   -2.36374177   -0.49748600


