%chk=check.chk
%mem=25600mb
%NProcShared=16

#P opt=(calcfc,maxcycle=100,maxstep=5,tight)  guess=mix cbs-qb3  integral=(grid=ultrafine, Acc2E=12) IOp(2/9=2000)    scf=(direct,tight)

nC3H7

0 2
 C                 -1.18931326   -0.20672077    0.03799787
 C                  0.15045979    0.51692270    0.26810287
 C                  1.30365988   -0.35924034   -0.25541203
 H                  0.14602777    1.45043390   -0.25480936
 H                 -1.18488124   -1.14023197    0.56091010
 H                 -1.32337713   -0.38476345   -1.00853339
 H                  0.28452366    0.69496538    1.31463414
 H                 -1.99056267    0.40204187    0.40173875
 H                  1.21296068   -1.42533606   -0.24475458
 H                  2.19560851    0.09809273   -0.62981037

