9    
Iteration 0 Energy -155.06498405
C       -0.9379067400    0.2806644300    0.1057294200
C        0.3565990600   -0.4495499700    0.0502017400
O        0.3662653000   -1.5939797900   -0.3801263200
H       -1.6892391500   -0.3333219500    0.6132915100
H       -0.8553202100    1.2390999700    0.6257802700
H       -1.3070488900    0.4600115100   -0.9094887800
H        0.7628100700   -0.5003659000    1.0648300900
H        1.0428705100    0.1213756100   -0.5823609600
H        1.2782001800   -1.9303103200   -0.3520347300
9    
Iteration 1 Energy -155.08234342
C       -0.9447958453    0.2978381579    0.1062276273
C        0.3628710287   -0.4183761268    0.0723202014
O        0.3680560756   -1.6076088182   -0.3539671345
H       -1.6924754102   -0.3152629132    0.6200695063
H       -0.8751008110    1.2652111398    0.6098907734
H       -1.3108026796    0.4558558471   -0.9135219620
H        0.7649593180   -0.4438896500    1.0922289827
H        1.0482165892    0.1517739879   -0.5661476693
H        1.2745581574   -1.9511311974   -0.3233215341
9    
Iteration 2 Energy -155.09797735
C       -0.9368988545    0.2903705685    0.0988800730
C        0.4163746641   -0.3532183273    0.0674206539
O        0.4441830452   -1.5867188497   -0.3929912846
H       -1.6525792091   -0.3644992065    0.6057868718
H       -0.9178438691    1.2548610207    0.6098395624
H       -1.3094150570    0.4374699201   -0.9196074653
H        0.8192673414   -0.3624234175    1.0902290081
H        1.0767013730    0.2599063446   -0.5621742186
H        1.3519497841   -1.9155890264   -0.3760916930
9    
Iteration 3 Energy -155.10716393
C       -0.9526372875    0.3306599340    0.0038346025
C        0.4271851024   -0.2819648986    0.0467655901
O        0.4144516461   -1.5605529859   -0.4511647431
H       -1.6767168812   -0.3369435327    0.4773378704
H       -0.9721785411    1.2929827465    0.5168425636
H       -1.2777391729    0.4756849682   -1.0291975745
H        0.7879988467   -0.2887065577    1.0851410139
H        1.1173281366    0.3400952844   -0.5407425323
H        1.3025877958   -1.9285111133   -0.4145587472
9    
Iteration 4 Energy -155.10935733
C        0.0119702772    0.4396264558   -0.0730084914
C        1.1755806987   -0.4386487788    0.3386187877
O        0.9768360502   -1.7231799747   -0.2068042714
H       -0.9312899614   -0.0172557307    0.2304929557
H        0.0888276567    1.4221551655    0.3964731932
H       -0.0073760274    0.5731068614   -1.1558933252
H        1.2381846008   -0.4868901191    1.4336655117
H        2.1163810541   -0.0055234854   -0.0251505405
H        1.7179655930   -2.2877503847    0.0348421942
9    
Iteration 5 Energy -155.10951461
C        1.5276278721    1.9446546420   -2.2976648926
C        1.2168772662    0.4660010188   -2.3837939706
O        0.6041631865    0.0742859473   -1.1691171368
H        2.2113413533    2.1427752488   -1.4710115010
H        1.9900559684    2.2925388151   -3.2235983091
H        0.6134925487    2.5172495592   -2.1307043589
H        2.1390986381   -0.1030081430   -2.5549744771
H        0.5471973170    0.2742447373   -3.2328687496
H        0.4183656706   -0.8693394678   -1.2001846547
9    
Iteration 6 Energy -155.10955207
C        0.1415508308    0.6721989417   -0.2474610725
C        1.2701684361   -0.3176336195   -0.0477385794
O        0.8212273293   -1.5933617479   -0.4795755573
H       -0.7448296829    0.3544261609    0.3037687907
H        0.4350587977    1.6617882950    0.1083727279
H       -0.1214334355    0.7478940879   -1.3038383826
H        1.5601219201   -0.3461876356    1.0105485421
H        2.1503141928   -0.0025068400   -0.6232179462
H        1.5326041801   -2.2317506629   -0.3674043532
9    
Iteration 7 Energy -155.10958966
C        0.2287368929    0.6161810196   -0.1915072378
C        1.3366576477   -0.3670601245    0.1222488511
O        0.9525528253   -1.6424138484   -0.3815842637
H       -0.7084771785    0.2936619154    0.2647168150
H        0.4787250019    1.6069177639    0.1933203876
H        0.0764283118    0.6917724874   -1.2693945602
H        1.5008583049   -0.4131547962    1.2065565631
H        2.2747506181   -0.0355000415   -0.3413670844
H        1.6523456153   -2.2765106344   -0.1958814105
9    
Iteration 8 Energy -155.10942221
C        0.4093048837    1.8537589425   -1.9249838588
C        0.3473497497    0.4276907915   -2.4289919123
O       -0.1616393736   -0.3853250798   -1.3951139456
H        1.0703163077    1.9244506570   -1.0598976990
H        0.7866110854    2.5133609813   -2.7089437163
H       -0.5830456026    2.1997568505   -1.6281425612
H        1.3516710683    0.1029849669   -2.7334410083
H       -0.2953194083    0.3807235113   -3.3190050866
H       -0.2129223920   -1.2962534430   -1.6999915342
9    
Iteration 9 Energy -155.10955183
C        0.5050800860    2.2244578924   -3.2245179257
C       -0.0803538755    0.8285179233   -3.1647705206
O        0.1466870174    0.3116786734   -1.8624409252
H        1.5772367130    2.1989071009   -3.0231762973
H        0.3491792485    2.6627133340   -4.2123229317
H        0.0329807666    2.8688739231   -2.4814460514
H        0.3924669258    0.1944466435   -3.9261917371
H       -1.1545010246    0.8654344837   -3.3882713587
H       -0.2177095138   -0.5773150728   -1.8070632338
9    
Iteration 10 Energy -155.10957942
C       -0.6499556794    2.3429680008   -5.8500068616
C       -0.9204454023    2.1210212988   -4.3772709716
O        0.2929066572    1.7062503072   -3.7618014835
H       -0.3033237010    1.4203175556   -6.3176660248
H       -1.5589760613    2.6710997116   -6.3577432547
H        0.1182521621    3.1061828216   -5.9860857925
H       -1.6973323956    1.3566181820   -4.2477072219
H       -1.2866114872    3.0483995641   -3.9184302285
H        0.1341421873    1.5612727894   -2.8237252135
9    
Iteration 11 Energy -155.10958673
C        0.4647418778    2.2739721076   -3.4148868686
C       -0.1550137968    0.9009927022   -3.2592918987
O        0.1899037986    0.4037143167   -1.9704174626
H        1.5505100390    2.2164280695   -3.3236318143
H        0.2209756480    2.6935258797   -4.3929772804
H        0.0920742114    2.9513982939   -2.6449550195
H        0.2170225256    0.2309140869   -4.0450590105
H       -1.2451134323    0.9672588430   -3.3691440173
H       -0.1964098458   -0.4705765200   -1.8578632498
9    
Iteration 12 Energy -155.10958724
C        0.6365575611    2.2304673459   -3.2778035653
C        0.0500618495    0.8385646458   -3.1677290152
O        0.2769326076    0.3668863043   -1.8413880062
H        1.7083376272    2.2117949113   -3.0739795210
H        0.4821129283    2.6310030577   -4.2817457859
H        0.1635856001    2.9028235480   -2.5603980389
H        0.5235965314    0.1733443744   -3.9012260284
H       -1.0244988869    0.8656531909   -3.3897345194
H       -0.0887951226   -0.5193890403   -1.7573320197
9    
Iteration 13 Energy -155.10958858
C        0.6355331657    2.2311033447   -3.2791367612
C        0.0489393631    0.8395224844   -3.1687039504
O        0.2766142584    0.3671443299   -1.8422675284
H        1.7074266087    2.2120637519   -3.0760874770
H        0.4803620136    2.6316451850   -4.2829531374
H        0.1632214014    2.9035440134   -2.5613272525
H        0.5216265444    0.1735840067   -3.9019930543
H       -1.0258602658    0.8663429529   -3.3893608839
H       -0.0895602160   -0.5190338290   -1.7587333410
9    
Iteration 14 Energy -155.10958953
C        0.6252788764    2.2330252065   -3.2704530807
C        0.0379706329    0.8415538880   -3.1667356512
O        0.2627002352    0.3635731463   -1.8411329039
H        1.6966283551    2.2126221571   -3.0647718711
H        0.4727054979    2.6374653909   -4.2731024149
H        0.1514647350    2.9029214347   -2.5512379674
H        0.5119926932    0.1770718428   -3.9003682108
H       -1.0365516992    0.8688436934   -3.3883409866
H       -0.1047073924   -0.5225627749   -1.7625066631
