9    
Generated by geomeTRIC from /home/calvin/Code/ARC/arc/testing/test_PYSCFAdapter/calcs/TSs/EtOH_ts/opt_a370/output_opt_ts.tmp/hessian/coords.xyz: Frame 1 of 1
C       -0.9379067400    0.2806644300    0.1057294200
C        0.3565990600   -0.4495499700    0.0502017400
O        0.3662653000   -1.5939797899   -0.3801263200
H       -1.6892391499   -0.3333219500    0.6132915100
H       -0.8553202100    1.2390999700    0.6257802700
H       -1.3070488900    0.4600115100   -0.9094887800
H        0.7628100700   -0.5003659000    1.0648300900
H        1.0428705100    0.1213756100   -0.5823609600
H        1.2782001800   -1.9303103199   -0.3520347300
